Version 4
SHEET 1 1824 680
WIRE -256 -1280 -336 -1280
WIRE -176 -1280 -256 -1280
WIRE 0 -1280 -112 -1280
WIRE 80 -1280 0 -1280
WIRE -1920 -1120 -2112 -1120
WIRE -2112 -1104 -2112 -1120
WIRE -2112 -1008 -2112 -1024
WIRE -448 -864 -720 -864
WIRE -384 -864 -384 -880
WIRE -384 -864 -448 -864
WIRE -96 -864 -384 -864
WIRE -32 -864 -96 -864
WIRE -2032 -816 -2096 -816
WIRE -1920 -816 -1952 -816
WIRE -784 -784 -800 -784
WIRE -384 -784 -384 -864
WIRE -448 -768 -448 -784
WIRE -784 -752 -784 -784
WIRE -704 -672 -784 -672
WIRE -448 -672 -448 -688
WIRE -368 -672 -448 -672
WIRE -96 -672 -96 -704
WIRE -16 -672 -96 -672
WIRE -32 -640 -32 -864
WIRE -384 -624 -384 -704
WIRE -96 -624 -96 -672
WIRE -64 -624 -96 -624
WIRE -1904 -608 -1920 -608
WIRE -720 -608 -720 -864
WIRE -448 -608 -448 -672
WIRE -416 -608 -448 -608
WIRE 64 -608 64 -672
WIRE 64 -608 0 -608
WIRE 112 -608 64 -608
WIRE -784 -592 -784 -672
WIRE -752 -592 -784 -592
WIRE -288 -592 -288 -672
WIRE -288 -592 -352 -592
WIRE -208 -592 -288 -592
WIRE -64 -592 -208 -592
WIRE -624 -576 -624 -672
WIRE -624 -576 -688 -576
WIRE -528 -576 -624 -576
WIRE -416 -576 -528 -576
WIRE -1136 -560 -1200 -560
WIRE -912 -560 -992 -560
WIRE -848 -560 -912 -560
WIRE -752 -560 -848 -560
WIRE -912 -480 -912 -496
WIRE -720 -480 -720 -544
WIRE -528 -480 -528 -512
WIRE -384 -480 -384 -560
WIRE -208 -480 -208 -528
WIRE -32 -480 -32 -576
FLAG -2112 -1008 0
FLAG -1920 -1120 Vheartsensor
IOPIN -1920 -1120 In
FLAG -1920 -816 9V
IOPIN -1920 -816 Out
FLAG -2096 -736 0
FLAG -336 -1280 9V
IOPIN -336 -1280 In
FLAG -144 -1216 0
FLAG 80 -1280 5V
IOPIN 80 -1280 Out
FLAG -1904 -608 Vheartpulsesout
IOPIN -1904 -608 Out
FLAG -1200 -560 Vheartsensor
IOPIN -1200 -560 In
FLAG 112 -608 Vheartpulsesout
IOPIN 112 -608 Out
FLAG -720 -480 0
FLAG -800 -784 0
FLAG -32 -480 0
FLAG -176 -784 0
FLAG -384 -480 0
FLAG -528 -784 0
FLAG -912 -480 0
FLAG -208 -480 0
FLAG -528 -480 0
FLAG -848 -480 0
FLAG -912 -560 BPF_out
FLAG -528 -576 1st_out
FLAG -208 -592 2nd_out
FLAG 0 -1216 0
FLAG -256 -1216 0
FLAG -384 -880 5V
IOPIN -384 -880 Out
SYMBOL voltage -2112 -1120 R0
WINDOW 123 0 0 Left 0
WINDOW 39 0 0 Left 0
WINDOW 3 44 52 Left 2
WINDOW 0 -13 54 Left 2
SYMATTR Value PWL file=HeartSensorPWL.csv
SYMATTR InstName V1
SYMBOL voltage -2096 -832 R0
WINDOW 123 24 44 Left 2
WINDOW 39 0 0 Left 0
WINDOW 3 -46 76 Left 2
WINDOW 0 -13 57 Left 2
SYMATTR Value 9
SYMATTR InstName V4
SYMBOL res -1936 -832 R90
WINDOW 0 -7 47 VBottom 2
WINDOW 3 34 56 VTop 2
SYMATTR InstName R_Sense
SYMATTR Value 0.010
SYMBOL LM7805 -144 -1264 R0
WINDOW 3 -83 -66 Top 2
SYMATTR InstName U1
SYMBOL cap -272 -1280 R0
WINDOW 0 -56 29 Left 2
WINDOW 3 -69 52 Left 2
SYMATTR InstName C1
SYMATTR Value 0.33µ
SYMBOL cap -16 -1280 R0
WINDOW 0 43 15 Left 2
WINDOW 3 32 52 Left 2
SYMATTR InstName C2
SYMATTR Value 0.1µ
SYMBOL Opamps\\opamp2 -720 -640 R0
WINDOW 0 22 42 Left 2
WINDOW 3 15 102 Left 2
SYMATTR InstName U6
SYMATTR Value TL081
SYMBOL res -608 -688 R90
WINDOW 0 0 56 VBottom 2
WINDOW 3 31 53 VTop 2
SYMATTR InstName R1
SYMATTR Value 50k
SYMBOL Opamps\\opamp2 -32 -672 R0
WINDOW 0 22 119 Left 2
SYMATTR InstName U7
SYMATTR Value TLC2272
SYMBOL res -112 -800 R0
SYMATTR InstName R2
SYMATTR Value 100
SYMBOL res 80 -688 R90
WINDOW 0 0 56 VBottom 2
WINDOW 3 35 58 VTop 2
SYMATTR InstName R3
SYMATTR Value 50k
SYMBOL res -112 -880 R0
SYMATTR InstName R4
SYMATTR Value 5k
SYMBOL res -80 -800 R90
WINDOW 0 0 64 VBottom 2
WINDOW 3 35 65 VTop 2
SYMATTR InstName R5
SYMATTR Value 4.301k
SYMBOL res -464 -784 R0
SYMATTR InstName R6
SYMATTR Value 1.001k
SYMBOL res -272 -688 R90
WINDOW 0 0 56 VBottom 2
WINDOW 3 32 56 VTop 2
SYMATTR InstName R7
SYMATTR Value 10k
SYMBOL res -464 -880 R0
SYMATTR InstName R8
SYMATTR Value 5k
SYMBOL res -432 -800 R90
WINDOW 0 0 56 VBottom 2
WINDOW 3 32 56 VTop 2
SYMATTR InstName R9
SYMATTR Value 4.5k
SYMBOL cap -896 -496 R180
WINDOW 0 42 40 Left 2
WINDOW 3 25 11 Left 2
SYMATTR InstName C3
SYMATTR Value 100µ
SYMBOL cap -224 -592 R0
WINDOW 0 37 18 Left 2
WINDOW 3 32 52 Left 2
SYMATTR InstName C4
SYMATTR Value 1.701m
SYMBOL cap -992 -576 R90
WINDOW 0 0 32 VBottom 2
WINDOW 3 32 32 VTop 2
SYMATTR InstName C5
SYMATTR Value 200µ
SYMBOL res -864 -576 R0
WINDOW 3 36 71 Left 2
SYMATTR Value 1k
SYMATTR InstName R10
SYMBOL res -1040 -576 R90
WINDOW 0 0 56 VBottom 2
WINDOW 3 32 56 VTop 2
SYMATTR InstName R11
SYMATTR Value 500
SYMBOL res -800 -768 R0
WINDOW 0 -36 46 Left 2
WINDOW 3 -46 76 Left 2
SYMATTR InstName R12
SYMATTR Value 300
SYMBOL cap -544 -576 R0
WINDOW 0 39 17 Left 2
WINDOW 3 36 49 Left 2
SYMATTR InstName C6
SYMATTR Value 2.5m
SYMBOL res -400 -800 R0
SYMATTR InstName R13
SYMATTR Value 50
SYMBOL Opamps\\opamp2 -384 -656 R0
WINDOW 0 22 42 Left 2
WINDOW 3 15 102 Left 2
SYMATTR InstName U8
SYMATTR Value TL081
TEXT -2072 -904 Left 2 !.tran 0 {transtop} 0 {timestep}
TEXT -2072 -936 Left 2 !.include A3heartcfg.txt
TEXT -2288 -1384 Left 2 ;Don't change these -- used for auto-assessments.\nYou may modify input files while developing.\nFor submission: \n  * Use only 9V supply \n  * Connect "Vheartsensor" to your \n               conditioning circuit's input\n  * Connect "Vheartpulsesout" to your output signal.\n  * Only one label name per net.
TEXT -2272 -936 Left 2 ;Config file:
TEXT -2272 -904 Left 2 ;Analysis setup:
TEXT -2272 -792 Left 2 ;Battery
TEXT -2280 -1080 Left 2 ;Sensor-\nemulating \nstimulus
TEXT -1552 -1400 Left 2 ;=============================\nPD Kirby,  21739064\nDC = 1.9 V\nHeart rate pk = 155.5mV\n=============================
TEXT -1552 -1160 Left 2 ;==========================================================================================\nHeart signal conditioning circuit (only copy and paste the given op-amps, or use those given in the working directory only)\n==========================================================================================
TEXT -384 -1400 Left 2 ;=============================\nVoltage regulation (complete this)\n=============================
TEXT -952 -1312 Left 2 !.incl TLC2272.LIB\n.incl TL081.LIB\n.incl LM78XX_RS.lib
TEXT -2272 -656 Left 2 ;Connect to your conditioning circuit's output
TEXT -960 -1400 Left 2 ;=============================\nIncludes (don't fiddle with this!!)\n=============================
LINE Normal -2304 -544 -2304 -1408 1
LINE Normal -1680 -1408 -1680 -544 1
LINE Normal -1680 -544 -2304 -544 1
LINE Normal -1680 -1408 -2304 -1408 1
