Version 4
SHEET 1 2488 680
WIRE -912 -1232 -960 -1232
WIRE -1120 -1216 -1216 -1216
WIRE -1072 -1216 -1120 -1216
WIRE -1120 -1200 -1120 -1216
WIRE -864 -1200 -960 -1200
WIRE -704 -1200 -864 -1200
WIRE -528 -1200 -704 -1200
WIRE -464 -1200 -528 -1200
WIRE -272 -1200 -464 -1200
WIRE -208 -1200 -272 -1200
WIRE -528 -1120 -544 -1120
WIRE -272 -1120 -288 -1120
WIRE -272 -1104 -272 -1120
WIRE -528 -1088 -528 -1120
WIRE -1840 -1072 -1888 -1072
WIRE -2032 -1056 -2080 -1056
WIRE -1936 -1056 -1984 -1056
WIRE -1888 -1056 -1888 -1072
WIRE -272 -1008 -272 -1024
WIRE -192 -1008 -272 -1008
WIRE -528 -992 -528 -1008
WIRE -448 -992 -528 -992
WIRE -2032 -976 -2032 -1056
WIRE -1984 -976 -2032 -976
WIRE -1936 -976 -1936 -1056
WIRE -1888 -976 -1936 -976
WIRE -704 -976 -704 -1200
WIRE -2080 -960 -2080 -976
WIRE -208 -960 -208 -1200
WIRE -464 -944 -464 -1200
WIRE -272 -944 -272 -1008
WIRE -240 -944 -272 -944
WIRE -528 -928 -528 -992
WIRE -496 -928 -528 -928
WIRE -112 -928 -112 -1008
WIRE -112 -928 -176 -928
WIRE 0 -928 -112 -928
WIRE -368 -912 -368 -992
WIRE -368 -912 -432 -912
WIRE -304 -912 -368 -912
WIRE -240 -912 -304 -912
WIRE -224 -912 -240 -912
WIRE -864 -896 -896 -896
WIRE -704 -896 -784 -896
WIRE -592 -896 -704 -896
WIRE -496 -896 -592 -896
WIRE -480 -896 -496 -896
WIRE -208 -816 -208 -896
WIRE -464 -800 -464 -880
WIRE -2032 -768 -2096 -768
WIRE -2032 -720 -2032 -768
WIRE -1920 -720 -1952 -720
WIRE -1888 -608 -1936 -608
FLAG -2080 -960 0
FLAG -1840 -1072 Stimulus
FLAG -1920 -720 9V
IOPIN -1920 -720 Out
FLAG -2096 -688 0
FLAG -1216 -1216 9V
IOPIN -1216 -1216 In
FLAG -1888 -608 Vout
IOPIN -1888 -608 Out
FLAG -896 -896 Stimulus
FLAG -912 -1232 0
FLAG -864 -1136 0
FLAG -464 -800 0
FLAG -704 -816 0
FLAG -624 -1120 0
FLAG 0 -928 Vout
IOPIN 0 -928 Out
FLAG -208 -816 0
FLAG -368 -1120 0
FLAG -1120 -1136 0
FLAG -304 -912 TL081_Out
FLAG -592 -832 0
DATAFLAG -928 -1232 ""
SYMBOL voltage -1984 -1072 R0
WINDOW 123 0 0 Left 0
WINDOW 39 0 0 Left 0
WINDOW 3 -89 197 Left 2
WINDOW 0 -13 54 Left 2
SYMATTR Value PWL file=PWLinput.csv
SYMATTR InstName V2
SYMBOL voltage -1888 -1072 R0
WINDOW 123 24 44 Left 2
WINDOW 39 0 0 Left 0
WINDOW 3 -386 233 Left 2
WINDOW 0 -11 56 Left 2
SYMATTR Value SINE({sineOffset} {sineAmplitude} {sineFreq})
SYMATTR InstName V3
SYMBOL voltage -2080 -1072 R0
WINDOW 123 0 0 Left 0
WINDOW 39 0 0 Left 0
WINDOW 3 3 160 Left 2
WINDOW 0 -13 55 Left 2
SYMATTR Value {dcAmplitude}
SYMATTR InstName V1
SYMBOL voltage -2096 -784 R0
WINDOW 123 24 44 Left 2
WINDOW 39 0 0 Left 0
WINDOW 3 -46 76 Left 2
WINDOW 0 -13 57 Left 2
SYMATTR Value 9
SYMATTR InstName V4
SYMBOL res -1936 -736 R90
WINDOW 0 -9 30 VBottom 2
WINDOW 3 34 56 VTop 2
SYMATTR InstName R_Sense
SYMATTR Value 0.010
SYMBOL res -768 -912 R90
WINDOW 0 0 56 VBottom 2
WINDOW 3 32 56 VTop 2
SYMATTR InstName R2
SYMATTR Value 1k
SYMBOL AutoGenerated\\LM7805 -1024 -1216 R0
WINDOW 0 8 -40 Bottom 2
SYMATTR InstName U1
SYMBOL cap -880 -1200 R0
SYMATTR InstName C3
SYMATTR Value 10µ
SYMBOL Opamps\\opamp2 -464 -976 R0
SYMATTR InstName U4
SYMATTR Value TL081
SYMBOL res -544 -1104 R0
SYMATTR InstName R3
SYMATTR Value 4k
SYMBOL res -352 -1008 R90
WINDOW 0 0 56 VBottom 2
WINDOW 3 32 56 VTop 2
SYMATTR InstName R8
SYMATTR Value 60k
SYMBOL res -720 -992 R0
SYMATTR InstName R6
SYMATTR Value 1.15k
SYMBOL res -720 -912 R0
SYMATTR InstName R9
SYMATTR Value 2k
SYMBOL res -544 -1216 R0
SYMATTR InstName R10
SYMATTR Value 3k
SYMBOL res -528 -1136 R90
WINDOW 0 0 56 VBottom 2
WINDOW 3 32 56 VTop 2
SYMATTR InstName R11
SYMATTR Value 3k
SYMBOL Opamps\\opamp2 -208 -992 R0
SYMATTR InstName U3
SYMATTR Value TLC2272
SYMBOL res -288 -1120 R0
SYMATTR InstName R12
SYMATTR Value 5k
SYMBOL res -96 -1024 R90
WINDOW 0 0 56 VBottom 2
WINDOW 3 32 56 VTop 2
SYMATTR InstName R13
SYMATTR Value 15k
SYMBOL res -288 -1216 R0
SYMATTR InstName R7
SYMATTR Value 3k
SYMBOL res -272 -1136 R90
WINDOW 0 0 56 VBottom 2
WINDOW 3 32 56 VTop 2
SYMATTR InstName R14
SYMATTR Value 3.21k
SYMBOL cap -1136 -1200 R0
SYMATTR InstName C1
SYMATTR Value 10µ
SYMBOL cap -608 -896 R0
SYMATTR InstName C2
SYMATTR Value 87µ
TEXT -2080 -1120 Left 2 !.tran 0 {transtop} 0 {timestep}
TEXT -1952 -1168 Left 2 !.include E344cfg.txt
TEXT -2288 -1384 Left 2 ;Don't change these -- used for auto-assessments.\nYou may modify input files while developing.\nFor submission: \n  * Use only 9V supply \n  * Connect "Stimulus" to your input\n  * Connect "Vout" to your output.\n  * Only one label name per net.
TEXT -2280 -1168 Left 2 ;Config file:
TEXT -2280 -1120 Left 2 ;Analysis setup:
TEXT -2272 -744 Left 2 ;Battery
TEXT -2280 -1032 Left 2 ;Sensor-\nemulating \nstimulus
TEXT -2272 -608 Left 2 ;Assessed nets:\nConnect to your outputs
TEXT -1552 -1400 Left 2 ;PD Kirby 21739064\nV(0degV) = 660 mV\ndeltaV/degV = 25 mV
TEXT -1840 -1592 Left 2 !.include TL081.lib
TEXT -1840 -1560 Left 2 !.include LM2595_ADJ_TRANS.LIB
TEXT -1840 -1528 Left 2 !.include TLC2272.LIB
TEXT -1840 -1496 Left 2 !.include LM78XX_RS.lib
TEXT -1840 -1624 Left 2 !.include diode.lib
LINE Normal -1792 -1008 -1856 -1008 2
LINE Normal -1792 -864 -1792 -1008 2
LINE Normal -1808 -880 -1792 -864 2
LINE Normal -1792 -864 -1808 -880 2
LINE Normal -1776 -880 -1792 -864 2
LINE Normal -2128 -1008 -2112 -1008 2
LINE Normal -2128 -928 -2128 -1008 2
LINE Normal -2128 -912 -2128 -928 2
LINE Normal -2096 -912 -2128 -912 2
LINE Normal -2112 -928 -2096 -912 2
LINE Normal -2096 -912 -2112 -928 2
LINE Normal -2112 -896 -2096 -912 2
LINE Normal -1968 -944 -1968 -992 2
LINE Normal -1856 -944 -1968 -944 2
LINE Normal -1856 -896 -1856 -944 2
LINE Normal -1872 -912 -1856 -896 2
LINE Normal -1856 -896 -1872 -912 2
LINE Normal -1840 -912 -1856 -896 2
LINE Normal -2304 -544 -2304 -1408 1
LINE Normal -1680 -1408 -1680 -544 1
LINE Normal -1680 -544 -2304 -544 1
LINE Normal -1680 -1408 -2304 -1408 1
