Version 4
SHEET 1 1988 680
WIRE -80 -1216 -352 -1216
WIRE -16 -1216 -80 -1216
WIRE 176 -1216 176 -1232
WIRE 176 -1216 -16 -1216
WIRE 272 -1216 176 -1216
WIRE 336 -1216 272 -1216
WIRE -1248 -1200 -1264 -1200
WIRE -1200 -1200 -1248 -1200
WIRE -1104 -1200 -1136 -1200
WIRE -1040 -1200 -1104 -1200
WIRE -416 -1136 -432 -1136
WIRE -80 -1136 -96 -1136
WIRE 272 -1136 256 -1136
WIRE -1168 -1120 -1168 -1136
WIRE -80 -1120 -80 -1136
WIRE 272 -1120 272 -1136
WIRE -416 -1104 -416 -1136
WIRE -1840 -1072 -1888 -1072
WIRE -2032 -1056 -2080 -1056
WIRE -1936 -1056 -1984 -1056
WIRE -1888 -1056 -1888 -1072
WIRE -336 -1024 -416 -1024
WIRE -80 -1024 -80 -1040
WIRE 0 -1024 -80 -1024
WIRE 272 -1024 272 -1040
WIRE 352 -1024 272 -1024
WIRE -2032 -976 -2032 -1056
WIRE -1984 -976 -2032 -976
WIRE -1936 -976 -1936 -1056
WIRE -1888 -976 -1936 -976
WIRE -352 -976 -352 -1216
WIRE -16 -976 -16 -1216
WIRE 336 -976 336 -1216
WIRE -2080 -960 -2080 -976
WIRE -416 -960 -416 -1024
WIRE -384 -960 -416 -960
WIRE -80 -960 -80 -1024
WIRE -48 -960 -80 -960
WIRE 272 -960 272 -1024
WIRE 304 -960 272 -960
WIRE -256 -944 -256 -1024
WIRE -256 -944 -320 -944
WIRE 80 -944 80 -1024
WIRE 80 -944 16 -944
WIRE 160 -944 80 -944
WIRE 240 -944 160 -944
WIRE 432 -944 432 -1024
WIRE 432 -944 368 -944
WIRE 576 -944 432 -944
WIRE -928 -928 -944 -928
WIRE -688 -928 -784 -928
WIRE -640 -928 -688 -928
WIRE -384 -928 -640 -928
WIRE -368 -928 -384 -928
WIRE -256 -928 -256 -944
WIRE -160 -928 -256 -928
WIRE -48 -928 -160 -928
WIRE -32 -928 -48 -928
WIRE 240 -928 240 -944
WIRE 304 -928 240 -928
WIRE 320 -928 304 -928
WIRE -352 -832 -352 -912
WIRE -16 -832 -16 -912
WIRE 336 -832 336 -912
WIRE -2032 -768 -2096 -768
WIRE 880 -736 864 -736
WIRE -2032 -720 -2032 -768
WIRE -1920 -720 -1952 -720
WIRE 576 -720 528 -720
WIRE 672 -720 656 -720
WIRE 800 -720 672 -720
WIRE 864 -720 864 -736
WIRE -1920 -624 -1968 -624
WIRE -1920 -576 -1968 -576
FLAG -2080 -960 0
FLAG -1840 -1072 Stimulus
FLAG -1920 -720 9V
IOPIN -1920 -720 Out
FLAG -2096 -688 0
FLAG -1264 -1200 9V
IOPIN -1264 -1200 In
FLAG -1920 -624 VoutBeatPulses
IOPIN -1920 -624 Out
FLAG -1920 -576 VoutRateAnalogue
IOPIN -1920 -576 Out
FLAG -1168 -1120 0
FLAG -1104 -1136 0
FLAG -1248 -1136 0
FLAG -352 -832 0
FLAG -432 -1136 0
FLAG -944 -928 Stimulus
FLAG -1040 -1200 5V
FLAG 336 -832 0
FLAG 192 -1136 0
FLAG 576 -944 VoutBeatPulses
IOPIN 576 -944 Out
FLAG -16 -832 0
FLAG -160 -1136 0
FLAG -688 -864 0
FLAG 160 -880 0
FLAG 176 -1232 5V
FLAG -640 -848 0
FLAG -160 -864 0
FLAG 672 -656 0
FLAG 880 -656 0
FLAG 528 -720 Stimulus
SYMBOL voltage -1984 -1072 R0
WINDOW 123 0 0 Left 0
WINDOW 39 0 0 Left 0
WINDOW 3 -89 197 Left 2
WINDOW 0 -13 54 Left 2
SYMATTR Value PWL file=Full_range.csv
SYMATTR InstName V2
SYMBOL voltage -1888 -1072 R0
WINDOW 123 24 44 Left 2
WINDOW 39 0 0 Left 0
WINDOW 3 -386 233 Left 2
WINDOW 0 -11 56 Left 2
SYMATTR Value SINE({sineOffset} {sineAmplitude} {sineFreq})
SYMATTR InstName V3
SYMBOL voltage -2080 -1072 R0
WINDOW 123 0 0 Left 0
WINDOW 39 0 0 Left 0
WINDOW 3 3 160 Left 2
WINDOW 0 -13 55 Left 2
SYMATTR Value {dcAmplitude}
SYMATTR InstName V1
SYMBOL voltage -2096 -784 R0
WINDOW 123 24 44 Left 2
WINDOW 39 0 0 Left 0
WINDOW 3 -46 76 Left 2
WINDOW 0 -13 57 Left 2
SYMATTR Value 9
SYMATTR InstName V4
SYMBOL res -1936 -736 R90
WINDOW 0 -9 30 VBottom 2
WINDOW 3 34 56 VTop 2
SYMATTR InstName R_Sense
SYMATTR Value 0.010
SYMBOL LM7805 -1168 -1184 R0
SYMATTR InstName U1
SYMBOL cap -1264 -1200 R0
SYMATTR InstName C1
SYMATTR Value 0.33µ
SYMBOL cap -1120 -1200 R0
SYMATTR InstName C2
SYMATTR Value 0.1µ
SYMBOL Opamps\\opamp2 -352 -1008 R0
SYMATTR InstName U4
SYMATTR Value TL081
SYMBOL res -240 -1040 R90
WINDOW 0 0 56 VBottom 2
WINDOW 3 32 56 VTop 2
SYMATTR InstName R10
SYMATTR Value 50k
SYMBOL Opamps\\opamp2 336 -1008 R0
SYMATTR InstName U2
SYMATTR Value TLC2272
SYMBOL res 256 -1136 R0
SYMATTR InstName R1
SYMATTR Value 50
SYMBOL res 448 -1040 R90
WINDOW 0 0 56 VBottom 2
WINDOW 3 32 56 VTop 2
SYMATTR InstName R4
SYMATTR Value 50k
SYMBOL res 256 -1232 R0
SYMATTR InstName R5
SYMATTR Value 5k
SYMBOL res 288 -1152 R90
WINDOW 0 0 56 VBottom 2
WINDOW 3 32 56 VTop 2
SYMATTR InstName R6
SYMATTR Value 4.51k
SYMBOL Opamps\\opamp2 -16 -1008 R0
SYMATTR InstName U3
SYMATTR Value TL081
SYMBOL res -96 -1136 R0
SYMATTR InstName R8
SYMATTR Value 1k
SYMBOL res 96 -1040 R90
WINDOW 0 0 56 VBottom 2
WINDOW 3 32 56 VTop 2
SYMATTR InstName R11
SYMATTR Value 50k
SYMBOL res -96 -1232 R0
SYMATTR InstName R12
SYMATTR Value 5k
SYMBOL res -64 -1152 R90
WINDOW 0 0 56 VBottom 2
WINDOW 3 32 56 VTop 2
SYMATTR InstName R13
SYMATTR Value 4.5k
SYMBOL cap -672 -864 R180
WINDOW 0 24 56 Left 2
WINDOW 3 24 8 Left 2
SYMATTR InstName C4
SYMATTR Value 100µ
SYMBOL cap 144 -944 R0
SYMATTR InstName C3
SYMATTR Value 1.5m
SYMBOL cap -784 -944 R90
WINDOW 0 0 32 VBottom 2
WINDOW 3 32 32 VTop 2
SYMATTR InstName C6
SYMATTR Value 200µ
SYMBOL res -656 -944 R0
SYMATTR InstName R14
SYMATTR Value 1k
SYMBOL res -832 -944 R90
WINDOW 0 0 56 VBottom 2
WINDOW 3 32 56 VTop 2
SYMATTR InstName R7
SYMATTR Value 500
SYMBOL res -432 -1120 R0
SYMATTR InstName R2
SYMATTR Value 300
SYMBOL cap -176 -928 R0
SYMATTR InstName C5
SYMATTR Value 2m
SYMBOL cap 656 -720 R0
SYMATTR InstName C7
SYMATTR Value 120µ
SYMBOL res 672 -736 R90
WINDOW 0 0 56 VBottom 2
WINDOW 3 32 56 VTop 2
SYMATTR InstName R15
SYMATTR Value 1k
SYMBOL res 896 -640 R180
WINDOW 0 -52 73 Left 2
WINDOW 3 -51 35 Left 2
SYMATTR InstName R3
SYMATTR Value 1k
SYMBOL cap 864 -736 R90
WINDOW 0 0 32 VBottom 2
WINDOW 3 -59 33 VTop 2
SYMATTR InstName C8
SYMATTR Value 30µ
TEXT -2080 -1120 Left 2 !.tran 0 {transtop} 0 {timestep}
TEXT -1952 -1168 Left 2 !.include E344cfg.txt
TEXT -2288 -1384 Left 2 ;Don't change these -- used for auto-assessments.\nYou may modify input files while developing.\nFor submission: \n  * Use only 9V supply \n  * Connect "Stimulus" to your input\n  * Connect "VoutXXXX" to your output signals.\n  * Only one label name per net.
TEXT -2280 -1168 Left 2 ;Config file:
TEXT -2280 -1120 Left 2 ;Analysis setup:
TEXT -2272 -744 Left 2 ;Battery
TEXT -2280 -1032 Left 2 ;Sensor-\nemulating \nstimulus
TEXT -2272 -608 Left 2 ;Assessed nets:\nConnect to your outputs
TEXT -1552 -1400 Left 2 ;E. Stewdent.,  00024601\nDC = 1.9 V\nHeart rate pk = 155.5mV
TEXT -1024 -840 Left 2 !.include TL081.lib
TEXT -816 -744 Left 2 !.include LM78XX_RS.lib
TEXT -816 -776 Left 2 !.lib TLC2272.LIB
LINE Normal -1792 -1008 -1856 -1008 2
LINE Normal -1792 -864 -1792 -1008 2
LINE Normal -1808 -880 -1792 -864 2
LINE Normal -1792 -864 -1808 -880 2
LINE Normal -1776 -880 -1792 -864 2
LINE Normal -2128 -1008 -2112 -1008 2
LINE Normal -2128 -928 -2128 -1008 2
LINE Normal -2128 -912 -2128 -928 2
LINE Normal -2096 -912 -2128 -912 2
LINE Normal -2112 -928 -2096 -912 2
LINE Normal -2096 -912 -2112 -928 2
LINE Normal -2112 -896 -2096 -912 2
LINE Normal -1968 -944 -1968 -992 2
LINE Normal -1856 -944 -1968 -944 2
LINE Normal -1856 -896 -1856 -944 2
LINE Normal -1872 -912 -1856 -896 2
LINE Normal -1856 -896 -1872 -912 2
LINE Normal -1840 -912 -1856 -896 2
LINE Normal -2304 -544 -2304 -1408 1
LINE Normal -1680 -1408 -1680 -544 1
LINE Normal -1680 -544 -2304 -544 1
LINE Normal -1680 -1408 -2304 -1408 1
