Version 4
SHEET 1 1188 872
WIRE 544 96 496 96
WIRE 384 112 208 112
WIRE 592 128 496 128
WIRE 752 128 592 128
WIRE 208 256 208 112
WIRE 208 256 -32 256
WIRE 400 336 400 320
WIRE 416 336 400 336
WIRE 208 400 208 256
WIRE 256 400 208 400
WIRE 336 400 336 320
WIRE 416 400 416 336
WIRE 800 400 416 400
WIRE 336 448 336 400
WIRE 368 448 336 448
WIRE 608 480 576 480
WIRE 208 512 208 400
WIRE 368 512 208 512
WIRE 608 512 608 480
WIRE 640 512 608 512
WIRE 800 512 800 400
WIRE 800 512 720 512
WIRE 928 512 800 512
WIRE 608 560 608 512
FLAG 608 624 0
FLAG 576 448 0
FLAG 928 512 5V_switch_regulator
FLAG 576 512 0
FLAG -32 336 0
FLAG 368 480 0
FLAG 544 96 0
FLAG 752 128 5V_linear_regulator
FLAG 592 192 0
SYMBOL AutoGenerated\\LM2595_ADJ_TRANS 464 480 R0
SYMATTR InstName U2
SYMBOL ind 736 496 R90
WINDOW 0 5 56 VBottom 2
WINDOW 3 32 56 VTop 2
SYMATTR InstName L1
SYMATTR Value 47µ
SYMBOL schottky 624 624 R180
WINDOW 0 24 64 Left 2
WINDOW 3 24 0 Left 2
SYMATTR InstName D1
SYMATTR Value 1N5822
SYMATTR Description Diode
SYMATTR Type diode
SYMBOL res 352 384 R90
WINDOW 0 0 56 VBottom 2
WINDOW 3 32 56 VTop 2
SYMATTR InstName R1
SYMATTR Value 1k
SYMBOL res 432 384 R90
WINDOW 0 0 56 VBottom 2
WINDOW 3 32 56 VTop 2
SYMATTR InstName R2
SYMATTR Value 17.5k
SYMBOL cap 400 304 R90
WINDOW 0 0 32 VBottom 2
WINDOW 3 32 32 VTop 2
SYMATTR InstName C4
SYMATTR Value 3.6n
SYMBOL voltage -32 240 R0
WINDOW 123 0 0 Left 0
WINDOW 39 0 0 Left 0
SYMATTR InstName V1
SYMATTR Value SINE(9 0.5 500)
SYMBOL AutoGenerated\\LM7805 432 112 R0
WINDOW 0 8 -40 Bottom 2
SYMATTR InstName U1
SYMBOL cap 576 128 R0
SYMATTR InstName C1
SYMATTR Value 10µ
TEXT -440 -232 Left 2 !.include TL081.lib
TEXT -440 -200 Left 2 !.include LM2595_ADJ_TRANS.LIB
TEXT -440 -168 Left 2 !.include TLC2272.LIB
TEXT -440 -136 Left 2 !.include LM78XX_RS.lib
TEXT -440 -264 Left 2 !.include diode.lib
TEXT -440 -296 Left 2 !.tran 0 500ms 0 1m
